8
minimum
C	 0.0028359449	-0.0028359449	 0.0028359449	
C	 0.8862835139	-0.8862835139	 0.8862835139	
H	-0.4438578404	-0.5771575469	-0.8166144655	
H	-0.8166144655	 0.4438578404	 0.5771575469	
H	 0.5771575469	 0.8166144655	-0.4438578404	
H	 1.7063746074	-1.3321021664	 0.3121961763	
H	 0.3121961763	-1.7063746074	 1.3321021664	
H	 1.3321021664	-0.3121961763	 1.7063746074	

charge = 0.0
spinpol = 0.0
