11
minimum
C	-0.0667747660	-0.0317148861	 0.0244056515	
C	 0.9361297016	-0.8387297676	 0.8528617822	
H	-0.4674314735	-0.6250225924	-0.8051895413	
H	-0.9153265611	 0.2981211604	 0.6358141357	
H	 0.3987421512	 0.8641494506	-0.4037543718	
H	 1.7500744300	-1.1825574325	 0.2003559313	
H	 0.4463726826	-1.7475006270	 1.2280527312	
C	 1.5293224270	-0.0630668082	 2.0318541285	
H	 2.2405849856	-0.6770910735	 2.5956418797	
H	 0.7477512896	 0.2625501617	 2.7288052755	
H	 2.0621182430	 0.8332498945	 1.6921996774	

charge = 0.0
spinpol = 0.0
