14
minimum
C	-0.2290584120	-0.0446066384	 0.0814160289	
C	 0.9122319809	-0.7959505748	 0.7769012877	
H	-0.6792409747	-0.6619661299	-0.7041227910	
H	-1.0236266839	 0.2157246473	 0.7913149370	
H	 0.1110309912	 0.8831028791	-0.3904946569	
H	 1.6807453236	-1.0556566911	 0.0349624193	
H	 0.5241185074	-1.7520194385	 1.1528888173	
C	 1.5753171906	-0.0516301847	 1.9481896028	
H	 2.2351411925	-0.7552156792	 2.4732118576	
H	 0.8025390446	 0.2340833551	 2.6759983447	
C	 2.3902735287	 1.1885494335	 1.5629409050	
H	 2.8710516775	 1.6273727633	 2.4445093347	
H	 1.7700454171	 1.9689678111	 1.1098173001	
H	 3.1823952566	 0.9364930571	 0.8472864028	

charge = 0.0
spinpol = 0.0
