14
minimum
C      -0.20510526      -0.02491817       0.11057259
C       0.93344837      -0.80193494       0.77185741
H      -0.64419812      -0.62051947      -0.69049411
H      -0.98474959       0.20447759       0.83869767
H       0.15595395       0.91095738      -0.31707292
H       1.70935146      -1.01488215       0.02833678
H       0.54466421      -1.76126482       1.12950603
C       1.55543809      -0.05491828       1.95900425
H       2.21387288      -0.74489754       2.49728470
H       0.76386710       0.25473445       2.65006552
C       2.36646766       1.16860281       1.53349878
H       2.83280388       1.62662957       2.40607260
H       1.72969638       1.91323016       1.05525590
H       3.15145303       0.88195202       0.83223459
