23
minimum
C      -0.20008316       0.02076812       0.01435780
C       0.82363761      -0.85004691       0.74305737
H      -0.67736246      -0.55554506      -0.77898721
H      -0.97173426       0.36411709       0.70522609
H       0.27576046       0.89249047      -0.43578935
H       1.60398100      -1.15946386       0.04045976
H       0.32458151      -1.75855818       1.09723277
C       1.45264911      -0.15241800       1.95589663
H       2.07467087      -0.87867416       2.48890151
H       0.65369591       0.15320541       2.64066705
C       2.28903498       1.09029376       1.62109364
H       2.63740344       1.52769138       2.56243184
H       1.65019182       1.83753435       1.13905514
C       3.49293179       0.83392068       0.70393348
H       3.98662348       1.79463228       0.51958306
H       3.14173643       0.46017744      -0.26320625
C       4.52779904      -0.15350030       1.25901032
H       5.29386443      -0.30606801       0.49115591
H       4.05829578      -1.12408258       1.44799930
C       5.20461338       0.34151155       2.53702231
H       5.98952483      -0.35492964       2.83342377
H       4.48880467       0.41753496       3.35585400
H       5.65461876       1.32239755       2.37685184
