26
minimum
C      -0.22783998      -0.04238762       0.05863902
C       0.83778635      -0.87295384       0.77411844
H      -0.69996288      -0.64025022      -0.72173215
H      -0.99777582       0.28011479       0.76136136
H       0.21018692       0.84134581      -0.40621943
H       1.61524733      -1.16093051       0.05933530
H       0.37636144      -1.79522890       1.14344209
C       1.46449835      -0.14594544       1.97068571
H       2.12649723      -0.84450708       2.49250374
H       0.66884302       0.13069097       2.67146273
C       2.24386546       1.12738913       1.61420390
H       2.60194562       1.57663693       2.54623980
H       1.56435331       1.85110487       1.15226449
C       3.42870016       0.91679002       0.66169276
H       3.88665207       1.89315551       0.47218791
H       3.06014340       0.54572691      -0.30018799
C       4.50108262      -0.05835792       1.16656114
H       5.27038833      -0.14496628       0.39108720
H       4.05902736      -1.05146437       1.29584873
C       5.17272562       0.35002450       2.48413947
H       5.85186161      -0.45633297       2.78131340
H       4.42147044       0.45112646       3.27376573
C       5.97088577       1.64905620       2.37273486
H       6.49689250       1.84099192       3.30836860
H       5.31502747       2.49602793       2.16963840
H       6.70647750       1.57900802       1.57011055
