12
minimum
 B       -1.37397541555614      -1.58853646891524      -0.02287492868616
 F       -2.57042393052275      -0.97653901052775      -0.15801670514134
 F       -0.94024370965293      -2.34931997769308      -1.07353142921827
 F       -1.05218010504362      -2.06170052468140       1.21948322680487
 C        3.11814735084983      -1.29376042733939       0.16309262782557
 C        1.77828222201266      -1.39431608562622       0.10911189703036
 C        0.98379196463232      -0.18913848505330      -0.08199482756596
 H        1.54430404410176       0.75872449153823      -0.17333629908952
 H        3.61619923285524      -0.32966568534647       0.06669461204215
 H        3.75238007402889      -2.16477740214766       0.30415408110560
 H        1.26024931695134      -2.34415995479550       0.20282173225372
 O       -0.25463244605661      -0.12390636171223      -0.15183353546102
level = BLYP-D3(BJ)/TZ2P/VeryGood