47
minimum
O 2.337616 0.441462 2.700985
N 0.089900 0.748347 2.204202
O -2.037153 0.647605 1.272286
C 1.366902 0.229070 1.992042
C 1.319594 -0.621842 0.720743
C -0.131349 -0.510876 0.205124
C -0.858002 0.349444 1.238132
C -0.234540 1.620221 3.332714
H 1.616947 -1.648320 0.956817
H -0.640630 -1.474270 0.126455
H -1.319914 1.731859 3.362588
H 0.238765 2.598862 3.200639
H 0.136131 1.172646 4.258858
O 0.455468 -1.455108 -3.049585
O 2.061707 -0.918282 -1.559676
C 1.878169 1.360089 -0.697346
C 0.629093 1.463311 -1.161140
C 2.276522 -0.058888 -0.372343
C -0.126782 0.151087 -1.262865
C 0.792752 -0.819272 -2.078375
H 2.561125 2.187773 -0.536754
O -1.379043 0.333067 -1.818077
H 0.123873 2.376032 -1.461801
H 3.324825 -0.186571 -0.107491
H -1.856985 -0.552974 -1.986839
N -2.992731 -1.803855 -2.384799
C -3.985722 -1.916548 -1.278139
C -3.632760 -1.221148 -3.601249
C -2.400604 -3.132035 -2.703494
C -4.564519 -0.579266 -0.800962
H -3.474901 -2.387138 -0.433666
H -4.801442 -2.600480 -1.583797
C -2.665774 -0.959331 -4.762573
H -4.077006 -0.269287 -3.301034
H -4.460345 -1.877935 -3.932345
H -1.718763 -2.986300 -3.542451
H -3.201478 -3.821044 -3.035409
C -1.609140 -3.777834 -1.561949
H -1.144196 -4.699537 -1.929894
H -2.232343 -4.043635 -0.702450
H -0.802466 -3.118955 -1.227085
H -1.787852 -0.404084 -4.419723
H -3.181353 -0.362983 -5.524506
H -2.323863 -1.881087 -5.242983
H -3.766720 0.122594 -0.542382
H -5.162190 -0.755809 0.101081
H -5.223355 -0.118711 -1.543809

level = BLYP-D3(BJ)/TZ2P/Good
