19
C6H11O2 optimized with ADF in AMS.
C        0.11081301856838       0.25518513768603      -0.48616926178520
C        1.47879116355809       0.44088437799547      -0.45163400188603
C        2.33871907531804       0.08269817790145       0.65470117703884
H        1.83904911004376      -0.39899805006514       1.52379216346950
O       -0.53743662049714      -0.41215723451003       0.50478942958827
C       -1.92215430279686      -0.77074138307771       0.22933568554320
C       -2.01579328031682      -2.07863391676897      -0.55086534604120
H       -2.40369735193459       0.05697966661071      -0.30920974403221
H       -2.38787044363892      -0.86002349341423       1.21541025548592
H       -1.54076952802631      -1.98840488751483      -1.53472346585702
H       -3.06897663555615      -2.34602471212776      -0.70316890156133
H       -1.52634404341605      -2.88999338822187      -0.00154559230969
H       -0.43602394979577       0.37080652950804      -1.42248631081573
H        1.94056513997903       0.93350445891407      -1.30447516716143
O        3.56117497201665       0.27530317972702       0.66497435518206
H       -1.62857395624713       2.34016245454354      -0.05776202934531
C       -0.55359434801501       2.49377022946406      -0.06906451270223
H       -0.04676766102188       2.58028814942658       0.88508434967487
H       -0.12930746462134       3.02492025702356      -0.91455301688530
