25
transitionstate
O -2.084590 -0.809138 0.292790
N 0.123218 -0.871009 -0.436364
O 2.273606 -0.315383 -1.124406
C -1.042876 -0.238595 0.039999
C -0.745589 1.264996 0.162104
C 0.674001 1.430765 -0.424649
C 1.174824 -0.000491 -0.707826
C 0.241070 -2.323036 -0.583377
H -1.509714 1.813711 -0.396712
H 0.658554 1.949056 -1.395420
H -0.765882 -2.742847 -0.555757
H 0.734989 -2.550179 -1.531224
H 0.836853 -2.733089 0.238750
O -0.336618 0.019698 3.318532
O 1.450949 0.672327 2.031256
C 1.087310 3.264790 1.238855
C -0.165219 3.074753 1.797592
C 1.591988 2.211976 0.471529
C -0.809889 1.793600 1.639031
C 0.283319 0.671463 2.484029
H 1.734616 4.072531 1.569589
O -2.057626 1.682298 2.234192
H -0.586005 3.766643 2.523800
H 2.657585 2.114338 0.278841
H -1.995783 0.884197 2.814168

level = BLYP-D3(BJ)/TZ2P/Good
