20
transitionstate
 C        0.06454015488540      -0.11076628705422      -0.41979151493924
 C        0.82192473291371       0.14339371610682       0.85010680463083
 Cl      -1.02569851808567       2.02190890448215      -0.56235885129628
 O        0.79245116602496      -1.99157959462564      -0.89657881879556
 H        0.50499217090335       0.13775129595981      -1.36903571962620
 H       -0.93461571098173      -0.50603109486798      -0.42045564600616
 H        1.53848023616670      -0.66657896601310       1.01995508564175
 H        1.37124742822866       1.08517246393861       0.77966744590005
 H        0.14959631863320       0.20782241059801       1.70943005026874
 C        0.27673238962378      -3.11457728776071      -0.48672566436136
 C       -0.71848591134583      -3.24193827652113       0.53220450167592
 C       -1.21278259803578      -4.48557297543739       0.91920610096701
 C       -0.75830994804573      -5.67152992558925       0.33323562996260
 C        0.21891704737836      -5.57676925780160      -0.66752554392248
 C        0.72146143278241      -4.34608868144818      -1.06982959732292
 H        1.47763671766287      -4.28479947938163      -1.85092817353460
 H        0.59312757221046      -6.48393054656573      -1.14535612669864
 H       -1.15191160994508      -6.63722068161703       0.64354760318989
 H       -1.09424231651265      -2.34649781350399       1.01920450154874
 H       -1.97189672280744      -4.52861840647401       1.70191498636693

charge = -1
level = OLYP/TZ2P/Good
