14
minimum
 Ti       0.24774706669018      -0.17640759001672      -3.33486855668488
 Cl       0.38525903683972      -2.12964555916678      -2.32833837396116
 Cl      -1.70026010482365       0.75699490324932      -2.97057817283315
 Cl       0.45240593942785      -0.51184940766082      -5.49601399278990
 Cl       1.87903633406525       1.15486636129709      -2.69331614328291
 C        0.62373435493690       0.27216463833930       0.50622388638839
 C       -0.71158239084670       0.16827610166149       0.42575133242442
 C       -1.60797462941768       1.30639317368567       0.62297880878157
 H       -1.11194172215930       2.26572714803262       0.84794670625757
 H        1.10424742781735       1.22402984286107       0.72660015026799
 H        1.27470945886689      -0.58243814211564       0.34818277831227
 H       -1.19301873876176      -0.78205301897467       0.19764789811294
 N       -2.88266938193418       1.17242804351676       0.52948206499739
 H       -3.35871890070087       2.06880491049131       0.69276169080946

level = BLYP-D3(BJ)/TZ2P/VeryGood