14
minimum
O 1.23769148 0.04409980 0.15264949
C -0.00272472 -0.00012329 0.10316866
C -0.76406577 1.25615180 0.07396343
C -2.10679145 1.48991896 0.02755490
C -0.67266779 -1.30742501 0.07448421
C -3.19948296 0.57003702 -0.00976705
C -1.99532162 -1.63623532 0.02776562
C -3.15071050 -0.79648756 -0.00971553
H -4.10827513 -1.31924415 -0.04291396
H -0.10335453 2.12572047 0.09644858
H -2.40024345 2.54251808 0.01698991
H -4.19185208 1.02324192 -0.04295170
H -2.21311151 -2.70705182 0.01737763
H 0.04829556 -2.12772772 0.09730829

level = BP86-D3(BJ)/TZ2P/Good
