118
transitionstate
C -5.88234781 -1.98647795 0.42529019
N -4.85157154 -0.97964694 0.72694420
H -3.85435673 -1.13158999 0.47845882
H -0.23352138 -4.31636521 -0.60766183
H 0.84146712 -2.99963760 -1.15484367
N -3.14230241 1.50311874 2.00922891
H -2.49689818 0.89443028 1.45387194
C -2.69089973 2.76059089 2.62175013
H -3.58856906 3.38271650 2.72560531
H -0.91848761 2.70050844 -0.16466648
C -1.68986963 3.49674327 1.67495086
N -1.80491286 3.10070891 0.25984189
H -0.66305117 3.26021790 1.96160242
P -2.84570696 3.77620943 -0.80964677
C -2.39778299 5.47868346 -1.25588511
C -1.04357131 5.84425992 -1.18238436
C -3.35443251 6.39726270 -1.72060332
C -0.64819859 7.12516319 -1.57159749
H -0.30978197 5.13186450 -0.81555953
C -2.95016622 7.67464547 -2.11355363
H -4.40519480 6.11931346 -1.77189105
C -1.60059250 8.03855467 -2.03828413
H 0.40068124 7.41148008 -1.50757552
H -3.68993689 8.38792906 -2.47438157
H -1.29082863 9.03816300 -2.34060367
C -4.53185639 3.86099244 -0.17413420
C -4.88205263 4.87360640 0.73983075
C -5.49458430 2.93758482 -0.60844878
C -6.18967651 4.95326157 1.21063240
H -4.14220355 5.60134018 1.06822570
C -6.80240637 3.02742583 -0.12915531
H -5.22346894 2.16159878 -1.31949217
C -7.14961947 4.03326734 0.77579996
H -6.45878471 5.72649469 1.92808931
H -7.54758387 2.30564231 -0.45465247
H -8.16806143 4.09111541 1.15645940
C -2.77578272 2.73929610 -2.28351643
C -2.52870436 1.36007506 -2.15649025
C -3.01555002 3.31671365 -3.54279339
C -2.52699636 0.56884777 -3.30771959
H -2.33400960 0.89978873 -1.18544538
C -3.02099202 2.50778566 -4.67991829
H -3.18506505 4.38678412 -3.63829756
C -2.77780313 1.13419119 -4.56186742
H -3.20641593 2.95127800 -5.65711861
H -2.77672197 0.50537968 -5.45174167
H -1.81105104 4.58105675 1.79935010
H -2.32383058 -0.49561946 -3.22203349
C 0.37489581 -0.64854214 0.53383351
C 0.67749670 0.63125351 1.10360251
H -0.18043754 1.11973963 1.55862271
S 1.02532362 1.97979121 -0.50271363
C 1.78358041 3.52513803 0.21288900
H 1.22306268 3.87130318 1.09452941
H 1.75019183 4.31058302 -0.56100304
H 2.83272195 3.34587536 0.49026073
C 1.92772367 0.71386667 1.96591064
H 2.18513688 1.74384710 2.24614236
H 2.78751335 0.27095043 1.44348227
H 1.75784373 0.14372762 2.89343550
H 1.23050471 -1.25906529 0.25893189
C -6.06616499 -8.32933007 2.26495913
C -6.45294973 -1.87922127 -1.04279988
C -7.07092351 -0.47385796 -1.19914678
C -5.35314939 -2.06608887 -2.10189691
C -7.55593767 -2.94281078 -1.23672243
H -7.84928400 -0.29477196 -0.44535069
H -7.50948583 -0.36743046 -2.20166288
H -4.84597573 -3.03240540 -1.99558140
H -5.79760201 -2.01206791 -3.10653879
H -4.60486454 -1.26823106 -2.02699850
H -8.02673713 -2.80663591 -2.22069168
H -7.15462283 -3.96418545 -1.19331496
H -8.34319262 -2.84386702 -0.47373422
C -5.31684528 -3.37635897 0.75848007
O -4.14804406 -3.68580673 0.51591904
N -6.24567486 -4.21764457 1.32560337
H -7.16685795 -3.81678455 1.49710779
H -4.03581455 -5.80293814 1.16783953
H -4.11678211 2.53649121 4.97025235
N -1.04288692 -2.42143550 -0.29270813
O -2.00958002 -0.42592384 0.36633409
C 0.11947592 -3.30349154 -0.37084480
H -0.93981929 4.44340577 4.08801745
H -2.82469077 1.84678017 5.99689923
C -6.13182577 -5.59192396 1.62895735
H -1.45702197 -2.55853098 -2.37396117
H -2.47486811 -3.59368599 -1.31355689
H -2.73987661 -1.84530949 -1.35441104
H -6.29887403 0.29324918 -1.08125326
H -6.72351410 -1.76955639 1.09537972
H -3.45853569 0.92495619 4.61433476
C -1.97967561 -2.61996342 -1.39769605
C -4.91227633 -7.67366587 1.82445088
C -4.93058349 -6.31195349 1.50591484
H -8.22676423 -5.69017214 2.16578389
H -8.16879572 -8.10045439 2.72817784
C -7.29524824 -6.24889641 2.07155302
C -0.91097650 -1.10417309 0.21512692
H -6.03816958 -9.39000248 2.51114009
H -3.97686415 -8.22453126 1.72696897
C -7.25966710 -7.60644186 2.38694470
C -2.11572308 2.57329127 4.07408469
C -0.86785353 1.66894814 4.09654231
C -1.76578854 3.97030595 4.63731821
C -3.20075188 1.93299487 4.96711583
H -1.08025569 0.68717837 3.65141925
H -0.01687372 2.11353931 3.56745328
H -0.55206789 1.50720665 5.13757872
H -2.63887024 4.63918045 4.59488999
H -1.45716941 3.88180581 5.68897425
H 0.64028427 -3.33557841 0.59328628
C -6.42579716 0.53748388 2.11605590
C -4.42222388 1.14824299 2.05590502
C -5.65256190 1.71989230 2.68305890
C -5.15862904 0.05592502 1.51232424
O -5.92123920 2.72356602 3.35207568
O -7.60160162 0.13671274 2.13424875

level = BLYP-D3(BJ)/DZP/Good
solvent = EthylAcetate
